REMARK  Name = 茜素 (Alizarin)
REMARK  SMILES = C1=CC=C2C(=C1)C(=O)C3=C(C2=O)C(=C(C=C3)O)O
REMARK  Molecular Weight = 240.21
REMARK  LogP = 3.2
REMARK  Category = 醌类
REMARK  Docking Score = -7.8 kcal/mol
ROOT
ATOM      1  C   UNL     1       0.000   0.000   0.000  1.00  0.00     0.158 C 
ATOM      2  C   UNL     1       1.390   0.000   0.000  1.00  0.00     0.158 C 
ATOM      3  C   UNL     1       2.090   1.200   0.000  1.00  0.00     0.158 C 
ATOM      4  C   UNL     1       1.390   2.400   0.000  1.00  0.00     0.158 C 
ATOM      5  C   UNL     1       0.000   2.400   0.000  1.00  0.00     0.158 C 
ATOM      6  C   UNL     1      -0.700   1.200   0.000  1.00  0.00     0.158 C 
ATOM      7  C   UNL     1       2.090   3.600   0.000  1.00  0.00     0.158 C 
ATOM      8  O   UNL     1       3.480   3.600   0.000  1.00  0.00    -0.503 OA
ATOM      9  C   UNL     1       1.390   4.800   0.000  1.00  0.00     0.158 C 
ATOM     10  C   UNL     1       0.000   4.800   0.000  1.00  0.00     0.158 C 
ATOM     11  C   UNL     1      -0.700   3.600   0.000  1.00  0.00     0.158 C 
ATOM     12  O   UNL     1      -2.090   3.600   0.000  1.00  0.00    -0.503 OA
ATOM     13  O   UNL     1      -0.700   6.000   0.000  1.00  0.00    -0.503 OA
ENDROOT
TORSDOF 2
