REMARK  Name = 金合欢素 (Acacetin)
REMARK  SMILES = COC1=CC=C(C=C1)C2=CC(=O)C3=C(C=C(C=C3O2)O)O
REMARK  Molecular Weight = 284.26
REMARK  LogP = 2.1
REMARK  Category = 黄酮类
REMARK  Docking Score = -8.5 kcal/mol
ROOT
ATOM      1  C   UNL     1      -0.123   0.456   0.012  1.00  0.00     0.158 C 
ATOM      2  C   UNL     1       1.267   0.456   0.012  1.00  0.00     0.158 C 
ATOM      3  C   UNL     1       1.967   1.656   0.012  1.00  0.00     0.158 C 
ATOM      4  C   UNL     1       1.267   2.856   0.012  1.00  0.00     0.158 C 
ATOM      5  C   UNL     1      -0.123   2.856   0.012  1.00  0.00     0.158 C 
ATOM      6  C   UNL     1      -0.823   1.656   0.012  1.00  0.00     0.158 C 
ATOM      7  O   UNL     1       3.357   1.656   0.012  1.00  0.00    -0.503 OA
ATOM      8  C   UNL     1       4.057   2.856   0.012  1.00  0.00     0.158 C 
ATOM      9  C   UNL     1       5.447   2.856   0.012  1.00  0.00     0.158 C 
ATOM     10  C   UNL     1       6.147   1.656   0.012  1.00  0.00     0.158 C 
ATOM     11  C   UNL     1       5.447   0.456   0.012  1.00  0.00     0.158 C 
ATOM     12  C   UNL     1       4.057   0.456   0.012  1.00  0.00     0.158 C 
ATOM     13  O   UNL     1       3.357  -0.744   0.012  1.00  0.00    -0.503 OA
ATOM     14  O   UNL     1       6.147  -0.744   0.012  1.00  0.00    -0.503 OA
ATOM     15  C   UNL     1       7.537   1.656   0.012  1.00  0.00     0.158 C 
ATOM     16  O   UNL     1       8.237   2.856   0.012  1.00  0.00    -0.503 OA
ENDROOT
TORSDOF 3
