REMARK  2 active torsions:
REMARK  status: ('A' for Active; 'I' for Inactive)
REMARK    1  A    between atoms: O_1  and  C_9 
REMARK    2  A    between atoms: C_5  and  C_8 
ROOT
HETATM    1  O   UNK     0       1.151   2.405  -0.006  0.00  0.00    -0.357 OA
HETATM    2  H   UNK     0       1.914   3.008  -0.006  0.00  0.00     0.218 HD
ENDROOT
BRANCH   1   3
HETATM    3  C   UNK     0       1.566   1.128  -0.002  0.00  0.00     0.107 A 
HETATM    4  C   UNK     0       0.733   0.033  -0.001  0.00  0.00     0.100 A 
HETATM    5  N   UNK     0       1.515  -1.091   0.002  0.00  0.00    -0.351 N 
HETATM    6  C   UNK     0       2.847  -0.742   0.003  0.00  0.00     0.045 A 
HETATM    7  H   UNK     0       1.170  -2.041   0.003  0.00  0.00     0.166 HD
HETATM    8  C   UNK     0       2.907   0.653   0.001  0.00  0.00     0.026 A 
HETATM    9  C   UNK     0       3.992  -1.547   0.006  0.00  0.00     0.030 A 
HETATM   10  C   UNK     0       4.170   1.278   0.001  0.00  0.00     0.016 A 
HETATM   11  C   UNK     0       5.323   0.485   0.004  0.00  0.00     0.001 A 
HETATM   12  C   UNK     0       5.234  -0.905   0.007  0.00  0.00     0.002 A 
BRANCH   4  13
HETATM   13  C   UNK     0      -0.719  -0.004  -0.004  0.00  0.00     0.138 A 
HETATM   14  N   UNK     0      -1.433   1.091  -0.011  0.00  0.00    -0.242 NA
HETATM   15  C   UNK     0      -2.788   0.707  -0.003  0.00  0.00     0.072 A 
HETATM   16  C   UNK     0      -2.974  -0.671   0.004  0.00  0.00     0.045 A 
HETATM   17  C   UNK     0      -3.890   1.543  -0.002  0.00  0.00     0.032 A 
HETATM   18  C   UNK     0      -1.633  -1.224  -0.004  0.00  0.00     0.215 A 
HETATM   19  C   UNK     0      -4.211  -1.280   0.012  0.00  0.00     0.018 A 
HETATM   20  O   UNK     0      -1.304  -2.382  -0.026  0.00  0.00    -0.285 OA
HETATM   21  C   UNK     0      -5.322  -0.438   0.013  0.00  0.00     0.001 A 
HETATM   22  C   UNK     0      -5.164   0.962   0.006  0.00  0.00     0.002 A 
ENDBRANCH   4  13
ENDBRANCH   1   3
TORSDOF 2
