REMARK  5 active torsions:
REMARK  status: ('A' for Active; 'I' for Inactive)
REMARK    1  A    between atoms: O_2  and  C_12 
REMARK    2  A    between atoms: O_6  and  C_24 
REMARK    3  A    between atoms: O_7  and  C_25 
REMARK    4  A    between atoms: O_8  and  C_26 
REMARK    5  A    between atoms: C_11  and  C_17 
ROOT
HETATM    1  O   UNK     0      -1.063   3.974   0.270  0.00  0.00    -0.321 OA
HETATM    2  O   UNK     0      -1.899   2.979  -1.632  0.00  0.00    -0.265 OA
HETATM    3  O   UNK     0       3.842  -2.636  -1.520  0.00  0.00    -0.323 OA
HETATM    4  O   UNK     0       5.193  -1.666   0.223  0.00  0.00    -0.323 OA
HETATM    5  C   UNK     0       0.576   2.417   0.772  0.00  0.00     0.058 C 
HETATM    6  C   UNK     0       0.250   2.296  -0.701  0.00  0.00     0.107 C 
HETATM    7  C   UNK     0       0.312   0.836  -1.163  0.00  0.00     0.066 C 
HETATM    8  C   UNK     0       2.036   2.074   1.028  0.00  0.00     0.158 C 
HETATM    9  C   UNK     0       1.646   0.216  -0.725  0.00  0.00    -0.037 A 
HETATM   10  C   UNK     0       0.132   3.831   1.061  0.00  0.00     0.187 C 
HETATM   11  C   UNK     0       2.440   0.786   0.320  0.00  0.00    -0.019 A 
HETATM   12  C   UNK     0      -1.037   3.077  -0.775  0.00  0.00     0.264 C 
HETATM   13  C   UNK     0       2.082  -0.953  -1.379  0.00  0.00     0.048 A 
HETATM   14  C   UNK     0       3.664   0.183   0.668  0.00  0.00     0.050 A 
HETATM   15  C   UNK     0       3.280  -1.515  -0.992  0.00  0.00     0.105 A 
HETATM   16  C   UNK     0       4.049  -0.962   0.002  0.00  0.00     0.105 A 
HETATM   17  C   UNK     0       5.054  -2.727  -0.743  0.00  0.00     0.352 A 
ENDROOT
BRANCH   8  18
HETATM   18  O   UNK     0       2.234   1.945   2.433  0.00  0.00    -0.390 OA
HETATM   19  H   UNK     0       1.800   1.126   2.727  0.00  0.00     0.210 HD
ENDBRANCH   8  18
BRANCH   7  20
HETATM   20  C   UNK     0      -0.842   0.030  -0.645  0.00  0.00    -0.043 A 
HETATM   21  C   UNK     0      -2.023  -0.032  -1.377  0.00  0.00     0.047 A 
HETATM   22  C   UNK     0      -3.096  -0.781  -0.896  0.00  0.00     0.104 A 
HETATM   23  C   UNK     0      -2.983  -1.464   0.315  0.00  0.00     0.135 A 
HETATM   24  C   UNK     0      -1.796  -1.398   1.044  0.00  0.00     0.104 A 
HETATM   25  C   UNK     0      -0.722  -0.649   0.563  0.00  0.00     0.047 A 
BRANCH  22  26
HETATM   26  O   UNK     0      -4.250  -0.838  -1.618  0.00  0.00    -0.353 OA
HETATM   27  C   UNK     0      -5.236   0.155  -1.344  0.00  0.00     0.210 C 
ENDBRANCH  22  26
BRANCH  23  28
HETATM   28  O   UNK     0      -4.032  -2.198   0.784  0.00  0.00    -0.351 OA
HETATM   29  C   UNK     0      -4.092  -3.567   0.390  0.00  0.00     0.210 C 
ENDBRANCH  23  28
BRANCH  24  30
HETATM   30  O   UNK     0      -1.672  -2.060   2.229  0.00  0.00    -0.353 OA
HETATM   31  C   UNK     0      -2.049  -1.353   3.409  0.00  0.00     0.210 C 
ENDBRANCH  24  30
ENDBRANCH   7  20
TORSDOF 5
