REMARK  4 active torsions:
REMARK  status: ('A' for Active; 'I' for Inactive)
REMARK    1  A    between atoms: O_18  and  C_6 
REMARK    2  A    between atoms: O_22  and  C_10 
REMARK    3  A    between atoms: O_20  and  C_11 
REMARK    4  A    between atoms: C_5  and  C_12 
ROOT
HETATM    1  O   UNK     0       0.489   0.812  -0.050  0.00  0.00    -0.309 OA
HETATM    2  O   UNK     0      -1.016  -2.966   0.188  0.00  0.00    -0.287 OA
HETATM    3  C   UNK     0      -1.449  -0.648   0.039  0.00  0.00     0.084 A 
HETATM    4  C   UNK     0      -0.868   0.616  -0.041  0.00  0.00     0.096 A 
HETATM    5  C   UNK     0       1.317  -0.297   0.033  0.00  0.00     0.090 A 
HETATM    6  C   UNK     0      -2.839  -0.788   0.043  0.00  0.00     0.118 A 
HETATM    7  C   UNK     0      -0.574  -1.828   0.118  0.00  0.00     0.190 A 
HETATM    8  C   UNK     0       0.879  -1.564   0.108  0.00  0.00     0.094 A 
HETATM    9  C   UNK     0      -1.676   1.751  -0.119  0.00  0.00     0.077 A 
HETATM   10  C   UNK     0      -3.645   0.349  -0.034  0.00  0.00     0.133 A 
HETATM   11  C   UNK     0      -3.064   1.615  -0.115  0.00  0.00     0.104 A 
ENDROOT
BRANCH   5  12
HETATM   12  C   UNK     0       2.758   0.027   0.010  0.00  0.00    -0.002 A 
HETATM   13  C   UNK     0       3.671  -0.873  -0.545  0.00  0.00     0.014 A 
HETATM   14  C   UNK     0       5.032  -0.568  -0.567  0.00  0.00     0.001 A 
HETATM   15  C   UNK     0       5.484   0.639  -0.033  0.00  0.00     0.000 A 
HETATM   16  C   UNK     0       4.576   1.540   0.522  0.00  0.00     0.001 A 
HETATM   17  C   UNK     0       3.215   1.234   0.544  0.00  0.00     0.014 A 
ENDBRANCH   5  12
BRANCH   6  18
HETATM   18  O   UNK     0      -3.443  -2.008   0.121  0.00  0.00    -0.357 OA
HETATM   19  H   UNK     0      -2.782  -2.716   0.174  0.00  0.00     0.218 HD
ENDBRANCH   6  18
BRANCH  11  20
HETATM   20  O   UNK     0      -3.844   2.731  -0.190  0.00  0.00    -0.358 OA
HETATM   21  H   UNK     0      -4.777   2.453  -0.176  0.00  0.00     0.218 HD
ENDBRANCH  11  20
BRANCH  10  22
HETATM   22  O   UNK     0      -5.003   0.226  -0.032  0.00  0.00    -0.356 OA
HETATM   23  H   UNK     0      -5.226  -0.720   0.030  0.00  0.00     0.218 HD
ENDBRANCH  10  22
TORSDOF 4
